Version 4
SHEET 1 3864 3572
WIRE 1072 640 848 640
WIRE 1200 640 1136 640
WIRE 1360 640 1296 640
WIRE 1664 640 1424 640
WIRE 848 672 848 640
WIRE 1664 672 1664 640
WIRE 1296 688 1296 640
WIRE 848 784 848 752
WIRE 976 784 848 784
WIRE 1056 784 976 784
WIRE 1200 784 1200 720
WIRE 1200 784 1136 784
WIRE 1296 800 1296 768
WIRE 1424 800 1296 800
WIRE 1664 800 1664 752
WIRE 1664 800 1504 800
WIRE 976 832 976 784
FLAG 976 832 0
SYMBOL ind2 1184 624 R0
SYMATTR InstName Lp1
SYMATTR Value {Lp}
SYMATTR Type ind
SYMBOL cap 1136 624 R90
WINDOW 0 0 32 VBottom 2
WINDOW 3 32 32 VTop 2
SYMATTR InstName C3
SYMATTR Value {Cp}
SYMBOL ind2 1280 672 R0
SYMATTR InstName Ls1
SYMATTR Value {Ls}
SYMATTR Type ind
SYMBOL cap 1424 624 R90
WINDOW 0 -6 32 VBottom 2
WINDOW 3 32 32 VTop 2
SYMATTR InstName C4
SYMATTR Value {Cs}
SYMBOL voltage_us 848 656 R0
WINDOW 123 -114 72 Left 2
WINDOW 39 0 0 Left 0
WINDOW 3 -301 30 Left 2
SYMATTR Value2 AC 1
SYMATTR Value SINE(0 18 {f})
SYMATTR InstName V1
SYMBOL res 1648 656 R0
SYMATTR InstName R1
SYMATTR Value {R}
SYMBOL res 1152 768 R90
WINDOW 0 0 56 VBottom 2
WINDOW 3 32 56 VTop 2
SYMATTR InstName R2
SYMATTR Value 0.2
SYMBOL res 1520 784 R90
WINDOW 0 0 56 VBottom 2
WINDOW 3 32 56 VTop 2
SYMATTR InstName R3
SYMATTR Value 0.2
TEXT 1184 960 Left 2 !.param f=65k  \n.param Lp=205u\n.param Ls=51u\n.param Cp 28n\n.param Cs 115.6n\n.param k= 0.396
TEXT 664 1048 Left 2 !.ac lin 24 42500 100000
TEXT 688 912 Left 2 !.options gmin=1e-10   \n.options abstol=1e-10  \n.options reltol=0.003  \n.options cshunt=1e-15
TEXT 1504 944 Left 2 !.param R 8.554
TEXT 1184 864 Left 2 !K1 Lp1 Ls1 {k}
