Version 4
SHEET 1 3864 3572
WIRE 1776 336 1680 336
WIRE 1856 336 1776 336
WIRE 2016 336 1936 336
WIRE 1680 352 1680 336
WIRE 1776 352 1776 336
WIRE 1088 384 864 384
WIRE 1216 384 1152 384
WIRE 1584 384 1360 384
WIRE 864 416 864 384
WIRE 1856 416 1856 336
WIRE 1360 432 1360 384
WIRE 1584 432 1584 384
WIRE 1680 432 1680 416
WIRE 1680 432 1584 432
WIRE 1776 448 1776 416
WIRE 1776 448 1584 448
WIRE 2160 464 2160 400
WIRE 1680 480 1680 432
WIRE 1776 480 1776 448
WIRE 864 528 864 496
WIRE 992 528 864 528
WIRE 1072 528 992 528
WIRE 1200 528 1152 528
WIRE 1216 528 1216 464
WIRE 1216 528 1200 528
WIRE 1360 544 1360 512
WIRE 1376 544 1360 544
WIRE 1392 544 1376 544
WIRE 1584 544 1584 448
WIRE 1584 544 1472 544
WIRE 1680 576 1680 544
WIRE 1776 576 1776 544
WIRE 1776 576 1680 576
WIRE 1856 576 1856 480
WIRE 1856 576 1776 576
WIRE 2016 576 1856 576
WIRE 992 592 992 528
WIRE 1200 624 1200 528
WIRE 1248 624 1200 624
WIRE 1376 624 1376 544
WIRE 1376 624 1328 624
WIRE 2160 640 2160 544
FLAG 992 592 0
FLAG 2016 336 Vout+
FLAG 2016 576 Vout-
FLAG 2160 400 Vout+
FLAG 2160 640 Vout-
SYMBOL ind2 1344 416 R0
SYMATTR InstName Ls
SYMATTR Value {Ls}
SYMATTR Type ind
SYMBOL res 1488 528 R90
WINDOW 0 0 56 VBottom 2
WINDOW 3 32 56 VTop 2
SYMATTR InstName R3
SYMATTR Value 0.1
SYMBOL ind2 1200 368 R0
SYMATTR InstName Lp
SYMATTR Value {Lp}
SYMATTR Type ind
SYMBOL cap 1152 368 R90
WINDOW 0 0 32 VBottom 2
WINDOW 3 32 32 VTop 2
SYMATTR InstName Cp
SYMATTR Value {Cp}
SYMBOL voltage_us 864 400 R0
WINDOW 123 -114 72 Left 2
WINDOW 39 0 0 Left 0
WINDOW 3 -261 32 Left 2
SYMATTR Value2 AC 1
SYMATTR Value SINE(0 56.5 {fop})
SYMATTR InstName Vin
SYMBOL res 1168 512 R90
WINDOW 0 0 56 VBottom 2
WINDOW 3 32 56 VTop 2
SYMATTR InstName R6
SYMATTR Value 0.2
SYMBOL diode 1696 416 R180
WINDOW 0 24 64 Left 2
WINDOW 3 24 0 Left 2
SYMATTR InstName D1
SYMBOL diode 1792 416 R180
WINDOW 0 24 64 Left 2
WINDOW 3 24 0 Left 2
SYMATTR InstName D2
SYMBOL diode 1696 544 R180
WINDOW 0 24 64 Left 2
WINDOW 3 24 0 Left 2
SYMATTR InstName D3
SYMBOL diode 1792 544 R180
WINDOW 0 24 64 Left 2
WINDOW 3 24 0 Left 2
SYMATTR InstName D4
SYMBOL cap 1840 416 R0
SYMATTR InstName C8
SYMATTR Value 20µ
SYMBOL res 2144 448 R0
SYMATTR InstName R2
SYMATTR Value {RL}
SYMBOL res 1344 608 R90
WINDOW 0 0 56 VBottom 2
WINDOW 3 32 56 VTop 2
SYMATTR InstName R1
SYMATTR Value 100k
SYMBOL ind 1952 320 R90
WINDOW 0 5 56 VBottom 2
WINDOW 3 32 56 VTop 2
SYMATTR InstName L1
SYMATTR Value 1e-3
TEXT 472 688 Left 2 !.tran 0 20.5m 20m 1e-7
TEXT 40 648 Left 2 !.param Lp=1530u\n.param Ls=8.5u\n.param Cp 5.2n\n.param RL 1.2
TEXT 472 624 Left 2 !;ac lin 1000 100000 200000
TEXT 104 400 Left 2 !.options gmin=1e-10   \n.options abstol=1e-10  \n.options reltol=0.003  \n.options cshunt=1e-15
TEXT 512 824 Left 2 !K1 Lp Ls 0.37
TEXT 840 840 Left 2 !.param fop=60k
