Version 4
SHEET 1 3864 3572
WIRE 880 -592 576 -592
WIRE 896 -592 880 -592
WIRE 880 -400 880 -512
WIRE 880 -224 880 -320
WIRE 880 -64 880 -144
WIRE 1056 -64 880 -64
WIRE 576 16 576 -592
WIRE 864 16 864 0
WIRE 864 16 576 16
WIRE 880 16 864 16
WIRE 1056 16 1056 -64
WIRE 1072 16 1072 0
WIRE 1072 16 1056 16
WIRE 864 96 864 16
WIRE 864 240 864 176
WIRE 1776 336 1680 336
WIRE 1856 336 1776 336
WIRE 2016 336 1856 336
WIRE 1680 352 1680 336
WIRE 1776 352 1776 336
WIRE 1072 384 1072 16
WIRE 1088 384 1072 384
WIRE 1104 384 1088 384
WIRE 1216 384 1152 384
WIRE 1424 384 1360 384
WIRE 1584 384 1488 384
WIRE 864 416 864 320
WIRE 1856 416 1856 336
WIRE 1360 432 1360 384
WIRE 1584 432 1584 384
WIRE 1680 432 1680 416
WIRE 1680 432 1584 432
WIRE 1776 448 1776 416
WIRE 1776 448 1584 448
WIRE 2160 464 2160 400
WIRE 1680 480 1680 432
WIRE 1776 480 1776 448
WIRE 864 528 864 496
WIRE 992 528 864 528
WIRE 1072 528 992 528
WIRE 1200 528 1152 528
WIRE 1216 528 1216 464
WIRE 1216 528 1200 528
WIRE 1360 544 1360 512
WIRE 1376 544 1360 544
WIRE 1392 544 1376 544
WIRE 1584 544 1584 448
WIRE 1584 544 1472 544
WIRE 1680 576 1680 544
WIRE 1776 576 1776 544
WIRE 1776 576 1680 576
WIRE 1856 576 1856 480
WIRE 1856 576 1776 576
WIRE 2016 576 1856 576
WIRE 992 592 992 528
WIRE 1200 624 1200 528
WIRE 1248 624 1200 624
WIRE 1376 624 1376 544
WIRE 1376 624 1328 624
WIRE 2160 640 2160 544
FLAG 992 592 0
FLAG 2016 336 Vout+
FLAG 2016 576 Vout-
FLAG 2160 400 Vout+
FLAG 2160 640 Vout-
SYMBOL ind2 1344 416 R0
SYMATTR InstName Ls
SYMATTR Value {Ls}
SYMATTR Type ind
SYMBOL cap 1488 368 R90
WINDOW 0 -6 32 VBottom 2
WINDOW 3 32 32 VTop 2
SYMATTR InstName Cs
SYMATTR Value {Cs}
SYMBOL res 1488 528 R90
WINDOW 0 0 56 VBottom 2
WINDOW 3 32 56 VTop 2
SYMATTR InstName R3
SYMATTR Value 0.1
SYMBOL ind2 1200 368 R0
SYMATTR InstName Lp
SYMATTR Value {Lp}
SYMATTR Type ind
SYMBOL cap 1152 368 R90
WINDOW 0 0 32 VBottom 2
WINDOW 3 32 32 VTop 2
SYMATTR InstName Cp
SYMATTR Value {Cp}
SYMBOL voltage_us 864 400 R0
WINDOW 123 -114 72 Left 2
WINDOW 39 0 0 Left 0
WINDOW 3 -1484 200 Left 2
SYMATTR Value2 AC 1
SYMATTR Value SINE(0 {mag_fsw} {fop})
SYMATTR InstName Vin
SYMBOL res 1168 512 R90
WINDOW 0 0 56 VBottom 2
WINDOW 3 32 56 VTop 2
SYMATTR InstName R6
SYMATTR Value 0.2
SYMBOL diode 1696 416 R180
WINDOW 0 24 64 Left 2
WINDOW 3 24 0 Left 2
SYMATTR InstName D1
SYMBOL diode 1792 416 R180
WINDOW 0 24 64 Left 2
WINDOW 3 24 0 Left 2
SYMATTR InstName D2
SYMBOL diode 1696 544 R180
WINDOW 0 24 64 Left 2
WINDOW 3 24 0 Left 2
SYMATTR InstName D3
SYMBOL diode 1792 544 R180
WINDOW 0 24 64 Left 2
WINDOW 3 24 0 Left 2
SYMATTR InstName D4
SYMBOL cap 1840 416 R0
SYMATTR InstName C8
SYMATTR Value 5m
SYMBOL res 2144 448 R0
SYMATTR InstName R2
SYMATTR Value {RL}
SYMBOL res 1344 608 R90
WINDOW 0 0 56 VBottom 2
WINDOW 3 32 56 VTop 2
SYMATTR InstName R1
SYMATTR Value 100k
SYMBOL voltage_us 864 224 R0
WINDOW 123 -114 72 Left 2
WINDOW 39 0 0 Left 0
WINDOW 3 -1497 221 Left 2
SYMATTR Value2 AC 1
SYMATTR Value SINE(0 {mag_side} {fop1} 0 0 0)
SYMATTR InstName Vin1
SYMBOL voltage_us 864 80 R0
WINDOW 123 -114 72 Left 2
WINDOW 39 0 0 Left 0
WINDOW 3 -1460 175 Left 2
SYMATTR Value2 AC 1
SYMATTR Value SINE(0 {mag_side} {fop2} 0 0 0)
SYMATTR InstName Vin2
SYMBOL voltage_us 880 -240 R0
WINDOW 123 -114 72 Left 2
WINDOW 39 0 0 Left 0
WINDOW 3 -1513 147 Left 2
SYMATTR Value2 AC 1
SYMATTR Value SINE(0 {mag_fsw} {fop} 0 0 {CPS})
SYMATTR InstName Vin3
SYMBOL voltage_us 880 -416 R0
WINDOW 123 -114 72 Left 2
WINDOW 39 0 0 Left 0
WINDOW 3 -1455 158 Left 2
SYMATTR Value2 AC 1
SYMATTR Value SINE(0 {mag_side} {fop1} 0 0 {CPS1})
SYMATTR InstName Vin4
SYMBOL voltage_us 880 -608 R0
WINDOW 123 -114 72 Left 2
WINDOW 39 0 0 Left 0
WINDOW 3 -1397 170 Left 2
SYMATTR Value2 AC 1
SYMATTR Value SINE(0 {mag_side} {fop2} 0 0 {CPS2})
SYMATTR InstName Vin5
TEXT 472 688 Left 2 !.tran 0 40m 10m 1e-7
TEXT 104 560 Left 2 !.param Lp=200u\n.param Ls=50u\n.param Cp 29n\n.param Cs 117n\n.param RL 7.5
TEXT 472 624 Left 2 !;ac lin 1000 100000 200000
TEXT 104 400 Left 2 !.options gmin=1e-10   \n.options abstol=1e-10  \n.options reltol=0.003  \n.options cshunt=1e-15
TEXT 512 824 Left 2 !K1 Lp Ls 0.4
TEXT 880 760 Left 2 !.param fop=82k\n.param fop1=fop-100;\n.param fop2=fop+100;
TEXT 744 1008 Left 2 !.param mag_side= 15;\n.param mag_fsw = 30;\n.param CPS =-58;\n.param CPS1 = 120+CPS;\n.param CPS2 = -120+CPS;
TEXT 1728 768 Left 2 !.ic V(C8)=18;
