Version 4
SHEET 1 3864 3572
WIRE 944 592 848 592
WIRE 1200 592 1024 592
WIRE 848 608 848 592
WIRE 1408 608 1344 608
WIRE 1472 608 1456 608
WIRE 1600 608 1472 608
WIRE 1200 640 1200 592
WIRE 1344 656 1344 608
WIRE 1600 656 1600 608
WIRE 848 704 848 688
WIRE 1344 768 1344 736
WIRE 1600 768 1600 736
WIRE 1600 768 1344 768
WIRE 1024 784 848 784
WIRE 1200 784 1200 720
WIRE 1200 784 1024 784
WIRE 1024 816 1024 784
WIRE 1024 928 1024 896
WIRE 1408 976 1344 976
WIRE 1472 976 1456 976
WIRE 1600 976 1472 976
WIRE 1344 1024 1344 976
WIRE 1600 1024 1600 976
WIRE 1344 1136 1344 1104
WIRE 1600 1136 1600 1104
WIRE 1600 1136 1344 1136
FLAG 1024 928 0
SYMBOL ind2 1184 624 R0
SYMATTR InstName Lp1
SYMATTR Value {Lp}
SYMATTR Type ind
SYMBOL ind2 1328 640 R0
SYMATTR InstName Ls1
SYMATTR Value {Ls}
SYMATTR Type ind
SYMBOL cap 1472 592 R90
WINDOW 0 -6 32 VBottom 2
WINDOW 3 32 32 VTop 2
SYMATTR InstName C4
SYMATTR Value {Cs1}
SYMBOL voltage_us 848 688 R0
WINDOW 123 -114 72 Left 2
WINDOW 39 0 0 Left 0
WINDOW 3 -301 30 Left 2
SYMATTR Value2 AC 1
SYMATTR Value SINE(0 24 {fop2})
SYMATTR InstName V1
SYMBOL ind2 1328 1008 R0
SYMATTR InstName Ls2
SYMATTR Value {Ls}
SYMATTR Type ind
SYMBOL cap 1472 960 R90
WINDOW 0 -6 32 VBottom 2
WINDOW 3 32 32 VTop 2
SYMATTR InstName C1
SYMATTR Value {Cs2}
SYMBOL res 1584 640 R0
SYMATTR InstName R2
SYMATTR Value 1
SYMBOL res 1584 1008 R0
SYMATTR InstName R5
SYMATTR Value 1
SYMBOL res 1040 576 R90
WINDOW 0 0 56 VBottom 2
WINDOW 3 32 56 VTop 2
SYMATTR InstName R1
SYMATTR Value 0.1
SYMBOL voltage_us 848 592 R0
WINDOW 123 -114 72 Left 2
WINDOW 39 0 0 Left 0
WINDOW 3 -301 30 Left 2
SYMATTR Value2 AC 1
SYMATTR Value SINE(0 24 {fop1})
SYMATTR InstName V2
SYMBOL res 1008 800 R0
SYMATTR InstName R3
SYMATTR Value 10k
TEXT 200 1104 Left 2 !.tran 0 2m 0 1e-8
TEXT 208 1312 Left 2 !.param f1=240k  \n.param f2=480k  \n.param Ls=6u\n.param Lp=46u\n.param Cp1  1/(4*pi*pi*f1*f1*Lp)\n.param Cp2  1/(4*pi*pi*f2*f2*Lp)\n.param Cs1  1/(4*pi*pi*f1*f1*Ls)\n.param Cs2  1/(4*pi*pi*f2*f2*Ls)\n.param k1=0.27\n.param k2=0.27
TEXT 192 1056 Left 2 !;ac lin 1000 10000 600000
TEXT 208 968 Left 2 !.param fop1= {f1}\n.param fop2= {f2}
TEXT 208 824 Left 2 !.options gmin=1e-10   \n.options abstol=1e-10  \n.options reltol=0.003  \n.options cshunt=1e-15
TEXT 912 1176 Left 2 !K1 Lp1 Ls1 {k1}\nK2 Lp1 Ls2 {k2}
