Version 4
SHEET 1 2164 872
WIRE 240 32 -704 32
WIRE 304 32 240 32
WIRE 896 32 896 16
WIRE 896 32 304 32
WIRE 848 80 592 80
WIRE 896 96 896 32
WIRE 240 112 240 32
WIRE 848 144 848 80
WIRE 848 144 832 144
WIRE 96 160 -480 160
WIRE 176 160 96 160
WIRE 832 176 832 144
WIRE 176 192 176 160
WIRE 896 192 896 176
WIRE 240 208 240 192
WIRE 592 208 592 160
WIRE 896 208 896 192
WIRE 896 208 592 208
WIRE 1072 240 592 240
WIRE -480 272 -480 240
WIRE 240 272 240 208
WIRE 240 272 -480 272
WIRE -704 288 -704 32
WIRE 896 288 896 208
WIRE 912 288 896 288
WIRE 1072 288 1072 240
WIRE 1216 288 1072 288
WIRE 1392 288 1296 288
WIRE 1888 288 1392 288
WIRE 2096 288 1968 288
WIRE 240 304 240 272
WIRE 256 304 240 304
WIRE 336 304 256 304
WIRE 592 304 592 240
WIRE 592 304 336 304
WIRE 912 304 912 288
WIRE 1104 304 912 304
WIRE 256 320 256 304
WIRE 848 336 624 336
WIRE 2096 368 2096 288
WIRE 48 384 -480 384
WIRE 192 384 48 384
WIRE 624 384 624 336
WIRE 848 384 848 336
WIRE 192 400 192 384
WIRE 928 400 912 400
WIRE 272 416 256 416
WIRE -480 496 -480 464
WIRE 272 496 272 416
WIRE 272 496 -480 496
WIRE 1104 512 1104 304
WIRE 1248 512 1104 512
WIRE 2096 512 2096 448
WIRE 2096 512 1248 512
WIRE -704 528 -704 368
WIRE 272 528 272 496
WIRE 272 528 -704 528
WIRE 624 528 624 464
WIRE 624 528 272 528
WIRE 928 528 928 400
WIRE 928 528 624 528
WIRE 928 544 928 528
WIRE 272 560 272 528
WIRE 1392 640 1392 288
WIRE 1504 640 1456 640
WIRE 1632 640 1584 640
WIRE 1728 640 1632 640
WIRE 1888 640 1808 640
WIRE 2096 640 1952 640
WIRE 2096 704 2096 640
WIRE 1632 720 1632 640
WIRE 1248 864 1248 512
WIRE 1632 864 1632 800
WIRE 1632 864 1248 864
WIRE 2096 864 2096 784
WIRE 2096 864 1632 864
FLAG 272 560 0
FLAG 928 544 0
FLAG 48 384 VGAp
FLAG 96 160 VGA
FLAG 336 304 VSA
FLAG 304 32 VDA
SYMBOL voltage_us -480 144 R0
WINDOW 123 0 0 Left 0
WINDOW 39 0 0 Left 0
SYMATTR InstName V1
SYMATTR Value PULSE(-3 7 0.0000025 1e-9 1e-9 0.0000098 0.0000125)
SYMBOL voltage_us -480 368 R0
WINDOW 123 0 0 Left 0
WINDOW 39 0 0 Left 0
SYMATTR InstName V2
SYMATTR Value PULSE(-3 7 0 1e-9 1e-9 0.0000023 0.0000125)
SYMBOL voltage -704 272 R0
WINDOW 123 0 0 Left 0
WINDOW 39 0 0 Left 0
SYMATTR InstName V3
SYMATTR Value 100
SYMBOL GaN_LTspice_GS66506T_L1V4P2 192 160 R0
WINDOW 3 -518 -264 Center 2
SYMATTR InstName U3
SYMBOL GaN_LTspice_GS66506T_L1V4P2 208 368 R0
WINDOW 3 -537 -436 Center 2
SYMATTR InstName U4
SYMBOL ind 1984 272 R90
WINDOW 0 5 56 VBottom 2
WINDOW 3 32 56 VTop 2
SYMATTR InstName L1
SYMATTR Value 0.001
SYMBOL res 2080 352 R0
SYMATTR InstName R1
SYMATTR Value 5
SYMBOL GaN_LTspice_GS66506T_L1V4P2 848 144 R0
WINDOW 3 -518 -264 Center 2
SYMATTR InstName U1
SYMBOL GaN_LTspice_GS66506T_L1V4P2 864 352 R0
WINDOW 3 -537 -436 Center 2
SYMATTR InstName U2
SYMBOL voltage_us 592 64 R0
WINDOW 123 0 0 Left 0
WINDOW 39 0 0 Left 0
SYMATTR InstName V4
SYMATTR Value PULSE(-3 7 0 1e-9 1e-9 0.0000023 0.0000125)
SYMBOL voltage_us 624 368 R0
WINDOW 123 0 0 Left 0
WINDOW 39 0 0 Left 0
SYMATTR InstName V5
SYMATTR Value PULSE(-3 7 0.0000025 1e-9 1e-9 0.0000098 0.0000125)
SYMBOL res 2080 688 R0
SYMATTR InstName R2
SYMATTR Value 8
SYMBOL res 1312 272 R90
WINDOW 0 0 56 VBottom 2
WINDOW 3 32 56 VTop 2
SYMATTR InstName R3
SYMATTR Value 0.001
SYMBOL cap 1456 624 R90
WINDOW 0 0 32 VBottom 2
WINDOW 3 32 32 VTop 2
SYMATTR InstName C2
SYMATTR Value 20n
SYMBOL ind 1600 624 R90
WINDOW 0 5 56 VBottom 2
WINDOW 3 32 56 VTop 2
SYMATTR InstName L3
SYMATTR Value 160µ
SYMBOL ind 1648 816 R180
WINDOW 0 36 80 Left 2
WINDOW 3 36 40 Left 2
SYMATTR InstName L4
SYMATTR Value 40µ
SYMBOL ind 1824 624 R90
WINDOW 0 5 56 VBottom 2
WINDOW 3 32 56 VTop 2
SYMATTR InstName L2
SYMATTR Value 10µ
SYMBOL cap 1952 624 R90
WINDOW 0 0 32 VBottom 2
WINDOW 3 32 32 VTop 2
SYMATTR InstName C1
SYMATTR Value 80n
TEXT -752 600 Left 2 !.tran 0 0.002 0 1e-8
