Version 4
SHEET 1 3864 3572
WIRE 1712 608 1344 608
WIRE 1072 640 848 640
WIRE 1200 640 1136 640
WIRE 1712 640 1712 608
WIRE 1344 656 1344 608
WIRE 848 672 848 640
WIRE 1344 768 1344 736
WIRE 1712 768 1712 720
WIRE 1712 768 1344 768
WIRE 976 784 944 784
WIRE 1200 784 1200 720
WIRE 1200 784 976 784
WIRE 976 832 976 784
WIRE 848 864 848 752
WIRE 944 864 944 784
WIRE 944 864 848 864
FLAG 976 832 0
SYMBOL ind2 1184 624 R0
SYMATTR InstName Lp1
SYMATTR Value {Lp}
SYMATTR Type ind
SYMBOL cap 1136 624 R90
WINDOW 0 0 32 VBottom 2
WINDOW 3 32 32 VTop 2
SYMATTR InstName C3
SYMATTR Value {Cp}
SYMBOL ind2 1328 640 R0
SYMATTR InstName Ls1
SYMATTR Value {Ls}
SYMATTR Type ind
SYMBOL voltage_us 848 656 R0
WINDOW 123 -114 72 Left 2
WINDOW 39 0 0 Left 0
WINDOW 3 -301 30 Left 2
SYMATTR Value2 AC 1
SYMATTR Value SINE(0 100 {fop})
SYMATTR InstName V1
SYMBOL res 1696 624 R0
SYMATTR InstName R1
SYMATTR Value {R}
TEXT 1152 1040 Left 2 !.param f=80k  \n.param Lp=160u\n.param Ls=100u\n.param Cp 70n\n.param k= 0.80\n.param fop=79k
TEXT 208 824 Left 2 !.options gmin=1e-10   \n.options abstol=1e-10  \n.options reltol=0.003  \n.options cshunt=1e-15
TEXT 1976 728 Left 2 !.param R=50
TEXT 1352 944 Left 2 !K1 Lp1 Ls1 {k}
TEXT 208 1232 Left 2 !.tran 0.01
