Version 4
SHEET 1 3864 3572
WIRE 1072 0 864 0
WIRE 864 160 864 0
WIRE 1792 176 1680 176
WIRE 1856 176 1792 176
WIRE 1792 256 1792 176
WIRE 1680 272 1680 176
WIRE 1792 272 1792 256
WIRE 1856 336 1856 176
WIRE 1888 336 1856 336
WIRE 2016 336 1888 336
WIRE 1072 384 1072 0
WIRE 1088 384 1072 384
WIRE 1104 384 1088 384
WIRE 1216 384 1152 384
WIRE 1424 384 1360 384
WIRE 1680 384 1680 336
WIRE 1680 384 1488 384
WIRE 864 416 864 240
WIRE 1360 432 1360 384
WIRE 1888 432 1888 336
WIRE 2016 448 1952 448
WIRE 1792 464 1792 320
WIRE 1792 464 1616 464
WIRE 2160 464 2160 400
WIRE 1792 496 1792 464
WIRE 1680 512 1680 384
WIRE 864 528 864 496
WIRE 992 528 864 528
WIRE 1072 528 992 528
WIRE 1200 528 1152 528
WIRE 1216 528 1216 464
WIRE 1216 528 1200 528
WIRE 1360 544 1360 512
WIRE 1376 544 1360 544
WIRE 1392 544 1376 544
WIRE 1616 544 1616 464
WIRE 1616 544 1472 544
WIRE 2016 576 2016 448
WIRE 992 592 992 528
WIRE 1200 624 1200 528
WIRE 1248 624 1200 624
WIRE 1376 624 1376 544
WIRE 1376 624 1328 624
WIRE 1680 640 1680 576
WIRE 1792 640 1792 560
WIRE 1792 640 1680 640
WIRE 1888 640 1888 496
WIRE 1888 640 1792 640
WIRE 1952 640 1952 448
WIRE 1952 640 1888 640
WIRE 2160 640 2160 544
FLAG 992 592 0
FLAG 2016 336 Vout+
FLAG 2016 576 Vout-
FLAG 2160 400 Vout+
FLAG 2160 640 Vout-
SYMBOL ind2 1344 416 R0
SYMATTR InstName Ls
SYMATTR Value {Ls}
SYMATTR Type ind
SYMBOL cap 1488 368 R90
WINDOW 0 -6 32 VBottom 2
WINDOW 3 32 32 VTop 2
SYMATTR InstName Cs
SYMATTR Value {Cs}
SYMBOL res 1488 528 R90
WINDOW 0 0 56 VBottom 2
WINDOW 3 32 56 VTop 2
SYMATTR InstName R3
SYMATTR Value 0.1
SYMBOL ind2 1200 368 R0
SYMATTR InstName Lp
SYMATTR Value {Lp}
SYMATTR Type ind
SYMBOL cap 1152 368 R90
WINDOW 0 0 32 VBottom 2
WINDOW 3 32 32 VTop 2
SYMATTR InstName Cp
SYMATTR Value {Cp}
SYMBOL voltage_us 864 400 R0
WINDOW 123 -114 72 Left 2
WINDOW 39 0 0 Left 0
WINDOW 3 -261 32 Left 2
SYMATTR Value2 AC 1
SYMATTR Value SINE(0 100 {fop})
SYMATTR InstName Vin
SYMBOL res 1168 512 R90
WINDOW 0 0 56 VBottom 2
WINDOW 3 32 56 VTop 2
SYMATTR InstName R6
SYMATTR Value 0.2
SYMBOL res 2144 448 R0
SYMATTR InstName R2
SYMATTR Value {RL}
SYMBOL res 1344 608 R90
WINDOW 0 0 56 VBottom 2
WINDOW 3 32 56 VTop 2
SYMATTR InstName R1
SYMATTR Value 100k
SYMBOL diode 1696 336 R180
WINDOW 0 24 64 Left 2
WINDOW 3 24 0 Left 2
SYMATTR InstName D1
SYMBOL diode 1696 576 R180
WINDOW 0 24 64 Left 2
WINDOW 3 24 0 Left 2
SYMATTR InstName D2
SYMBOL diode 1808 320 R180
WINDOW 0 24 64 Left 2
WINDOW 3 24 0 Left 2
SYMATTR InstName D3
SYMBOL diode 1808 560 R180
WINDOW 0 24 64 Left 2
WINDOW 3 24 0 Left 2
SYMATTR InstName D4
SYMBOL voltage_us 864 144 R0
WINDOW 123 -114 72 Left 2
WINDOW 39 0 0 Left 0
WINDOW 3 -261 32 Left 2
SYMATTR Value2 AC 1
SYMATTR Value SINE(0 33 {fop3})
SYMATTR InstName Vin1
SYMBOL cap 1872 432 R0
SYMATTR InstName C1
SYMATTR Value 150µ
TEXT 472 688 Left 2 !.tran 0 5.1m 5m 1e-7
TEXT 104 560 Left 2 !.param Lp=196.9u\n.param Ls=46.8u\n.param Cp 27.5n\n.param Cs 122.2n
TEXT 472 624 Left 2 !;ac lin 1000 10000 200000
TEXT 104 400 Left 2 !.options gmin=1e-10   \n.options abstol=1e-10  \n.options reltol=0.003  \n.options cshunt=1e-15
TEXT 512 824 Left 2 !K1 Lp Ls 0.8
TEXT 880 760 Left 2 !.param fop=50k\n.param fop3=fop*3
TEXT 1504 688 Left 2 !.param RL 5
