Version 4
SHEET 1 3864 3572
WIRE 1776 384 1664 384
WIRE 1872 384 1776 384
WIRE 1968 384 1872 384
WIRE 1664 480 1664 384
WIRE 1776 480 1776 384
WIRE 1408 608 1344 608
WIRE 1664 608 1664 544
WIRE 1664 608 1472 608
WIRE 1968 624 1968 384
WIRE 1040 640 848 640
WIRE 1072 640 1040 640
WIRE 1200 640 1136 640
WIRE 1872 640 1872 384
WIRE 1344 656 1344 608
WIRE 848 672 848 640
WIRE 1344 768 1344 736
WIRE 1472 768 1344 768
WIRE 1776 768 1776 544
WIRE 1776 768 1552 768
WIRE 848 784 848 752
WIRE 976 784 944 784
WIRE 1056 784 976 784
WIRE 1200 784 1200 720
WIRE 1200 784 1136 784
WIRE 976 832 976 784
WIRE 1664 832 1664 608
WIRE 1776 832 1776 768
WIRE 1040 880 1040 640
WIRE 1040 880 1008 880
WIRE 848 928 848 864
WIRE 1664 976 1664 896
WIRE 1776 976 1776 896
WIRE 1776 976 1664 976
WIRE 1872 976 1872 704
WIRE 1872 976 1776 976
WIRE 1968 976 1968 704
WIRE 1968 976 1872 976
WIRE 1968 992 1968 976
WIRE 1008 1008 1008 960
WIRE 848 1072 848 1008
WIRE 1008 1136 1008 1088
WIRE 848 1248 848 1152
WIRE 944 1248 944 784
WIRE 944 1248 848 1248
FLAG 976 832 0
FLAG 1008 1136 0
SYMBOL ind2 1184 624 R0
SYMATTR InstName Lp1
SYMATTR Value {Lp}
SYMATTR Type ind
SYMBOL cap 1136 624 R90
WINDOW 0 0 32 VBottom 2
WINDOW 3 32 32 VTop 2
SYMATTR InstName C3
SYMATTR Value {Cp}
SYMBOL ind2 1328 640 R0
SYMATTR InstName Ls1
SYMATTR Value {Ls}
SYMATTR Type ind
SYMBOL cap 1472 592 R90
WINDOW 0 -6 32 VBottom 2
WINDOW 3 32 32 VTop 2
SYMATTR InstName C4
SYMATTR Value {Cs}
SYMBOL voltage_us 848 656 R0
WINDOW 123 -114 72 Left 2
WINDOW 39 0 0 Left 0
WINDOW 3 -301 30 Left 2
SYMATTR Value SINE(0 {Vfsw} {fsw})
SYMATTR InstName V1
SYMBOL res 1952 608 R0
SYMATTR InstName R1
SYMATTR Value {R}
SYMBOL res 1152 768 R90
WINDOW 0 0 56 VBottom 2
WINDOW 3 32 56 VTop 2
SYMATTR InstName R2
SYMATTR Value 0.2
SYMBOL res 1568 752 R90
WINDOW 0 0 56 VBottom 2
WINDOW 3 32 56 VTop 2
SYMATTR InstName R3
SYMATTR Value 0.2
SYMBOL voltage 848 768 R0
WINDOW 123 0 0 Left 0
WINDOW 39 0 0 Left 0
WINDOW 3 -277 48 Left 2
SYMATTR Value SINE(0 {Vfo} {fo})
SYMATTR InstName V2
SYMBOL voltage 848 912 R0
WINDOW 123 0 0 Left 0
WINDOW 39 0 0 Left 0
WINDOW 3 -277 48 Left 2
SYMATTR Value SINE(0 {Vsl} {fsw-2*fo})
SYMATTR InstName V3
SYMBOL voltage 848 1056 R0
WINDOW 123 0 0 Left 0
WINDOW 39 0 0 Left 0
WINDOW 3 -277 48 Left 2
SYMATTR Value SINE(0 {Vsh} {fsw+2*fo})
SYMATTR InstName V4
SYMBOL res 992 864 R0
SYMATTR InstName R4
SYMATTR Value 24
SYMBOL ind 992 992 R0
SYMATTR InstName L1
SYMATTR Value 30m
SYMBOL diode 1680 544 R180
WINDOW 0 24 64 Left 2
WINDOW 3 24 0 Left 2
SYMATTR InstName D1
SYMBOL diode 1680 896 R180
WINDOW 0 24 64 Left 2
WINDOW 3 24 0 Left 2
SYMATTR InstName D2
SYMBOL diode 1792 544 R180
WINDOW 0 24 64 Left 2
WINDOW 3 24 0 Left 2
SYMATTR InstName D3
SYMBOL diode 1792 896 R180
WINDOW 0 24 64 Left 2
WINDOW 3 24 0 Left 2
SYMATTR InstName D4
SYMBOL cap 1856 640 R0
SYMATTR InstName C1
SYMATTR Value 2m
TEXT 1152 1040 Left 2 !.param f=65k  \n.param Lp=205u\n.param Ls=51u\n.param Cp 28.5n\n.param Cs 115.6n\n.param k= 0.40\n.param fsw=80k\n.param fo= 50
TEXT 208 824 Left 2 !.options gmin=1e-10   \n.options abstol=1e-10  \n.options reltol=0.003  \n.options cshunt=1e-15
TEXT 2432 720 Left 2 !.param R=9.5
TEXT 1352 944 Left 2 !K1 Lp1 Ls1 {k}
TEXT 208 1232 Left 2 !.tran 0 200m 50m
TEXT 584 344 Left 2 !.param Vfsw   40\n.param Vfo     78\n.param  Vsl    10\n.param  Vsh   10
