Version 4
SHEET 1 3864 3572
WIRE 2400 496 2272 496
WIRE 2272 512 2272 496
WIRE 2496 512 2272 512
WIRE 2608 512 2576 512
WIRE 2272 528 2272 512
WIRE 2400 528 2400 496
WIRE 2608 560 2608 512
WIRE 944 592 848 592
WIRE 1104 592 1024 592
WIRE 1200 592 1168 592
WIRE 2272 592 2192 592
WIRE 848 608 848 592
WIRE 1440 608 1344 608
WIRE 1616 608 1504 608
WIRE 1200 640 1200 592
WIRE 1616 640 1616 608
WIRE 1344 656 1344 608
WIRE 2400 656 2400 592
WIRE 2400 656 2192 656
WIRE 2272 672 2272 592
WIRE 2400 672 2400 656
WIRE 1344 768 1344 736
WIRE 1616 768 1616 720
WIRE 1616 768 1344 768
WIRE 2192 768 2192 656
WIRE 2192 768 2128 768
WIRE 848 784 848 688
WIRE 1024 784 848 784
WIRE 1200 784 1200 720
WIRE 1200 784 1024 784
WIRE 2272 784 2272 736
WIRE 2384 784 2272 784
WIRE 2400 784 2400 736
WIRE 2400 784 2384 784
WIRE 2384 800 2384 784
WIRE 2608 800 2608 640
WIRE 2608 800 2384 800
WIRE 1024 816 1024 784
WIRE 1024 928 1024 896
FLAG 1024 928 0
SYMBOL ind2 1184 624 R0
SYMATTR InstName Lp1
SYMATTR Value {Lp}
SYMATTR Type ind
SYMBOL ind2 1328 640 R0
SYMATTR InstName Ls1
SYMATTR Value {Ls}
SYMATTR Type ind
SYMBOL res 1040 576 R90
WINDOW 0 0 56 VBottom 2
WINDOW 3 32 56 VTop 2
SYMATTR InstName R1
SYMATTR Value 0.1
SYMBOL voltage_us 848 592 R0
WINDOW 123 -114 72 Left 2
WINDOW 39 0 0 Left 0
WINDOW 3 -301 30 Left 2
SYMATTR Value2 AC 1
SYMATTR Value SINE(0 200 {fop1})
SYMATTR InstName V2
SYMBOL res 1008 800 R0
SYMATTR InstName R3
SYMATTR Value 10k
SYMBOL res 2624 656 R180
WINDOW 0 36 76 Left 2
WINDOW 3 36 40 Left 2
SYMATTR InstName R
SYMATTR Value {R}
SYMBOL cap 1504 592 R90
WINDOW 0 0 32 VBottom 2
WINDOW 3 32 32 VTop 2
SYMATTR InstName C1
SYMATTR Value {Cs}
SYMBOL diode 2288 592 R180
WINDOW 0 24 64 Left 2
WINDOW 3 24 0 Left 2
SYMATTR InstName D1
SYMBOL diode 2288 736 R180
WINDOW 0 24 64 Left 2
WINDOW 3 24 0 Left 2
SYMATTR InstName D2
SYMBOL ind 2592 496 R90
WINDOW 0 5 56 VBottom 2
WINDOW 3 32 56 VTop 2
SYMATTR InstName L1
SYMATTR Value {Lr}
SYMBOL diode 2416 592 R180
WINDOW 0 24 64 Left 2
WINDOW 3 24 0 Left 2
SYMATTR InstName D3
SYMBOL diode 2416 736 R180
WINDOW 0 24 64 Left 2
WINDOW 3 24 0 Left 2
SYMATTR InstName D4
SYMBOL res 1632 736 R180
WINDOW 0 36 76 Left 2
WINDOW 3 36 40 Left 2
SYMATTR InstName R2
SYMATTR Value {R}
SYMBOL cap 1168 576 R90
WINDOW 0 0 32 VBottom 2
WINDOW 3 32 32 VTop 2
SYMATTR InstName C2
SYMATTR Value {Cp}
TEXT 200 1104 Left 2 !;tran 0 2m 0 1e-8
TEXT 208 1312 Left 2 !.param f1=80k  \n.param Ls=60u\n.param Lp=1m\n.param Lr=1m\n.param Cp  1/(4*pi*pi*f1*f1*Lp)\n.param Cs  1/(4*pi*pi*f1*f1*Ls)\n.param k=0.27\n.param R 100
TEXT 192 1056 Left 2 !.ac lin 1000 10000 600000
TEXT 208 968 Left 2 !.param fop1= {f1}
TEXT 208 824 Left 2 !.options gmin=1e-10   \n.options abstol=1e-10  \n.options reltol=0.003  \n.options cshunt=1e-15
TEXT 912 1176 Left 2 !K1 Lp1 Ls1 {k}
